*KEYWORD
*TITLE
$#                                                                         title
implicit thermo-mechanical problem
*CONTROL_ACCURACY
1,,,1
*CONTROL_STRUCTURED
*CONTROL_IMPLICIT_AUTO
$# 2 auto, 0 fixed
$#   iauto    iteopt    itewin     dtmin     dtmax     dtexp     kfail    kcycle
         2
*CONTROL_IMPLICIT_GENERAL
$# 0 explicit, 1 implicit
$#  imflag       dt0    imform      nsbs       igs     cnstn      form    zero_v
         1       0.1
*CONTROL_TERMINATION
$#  endtim    endcyc     dtmin    endeng    endmas     nosol
       1.0         0       0.0       0.0     1.0E8         0
*CONTROL_SOLUTION
$# mechanical, thermal, coupled
$#    soln       nlq     isnan     lcint     lcacc     ncdcf     nocop
         2         0         0       100         0         1         0
$ *CONTROL_IMPLICIT_DYNAMICS
$ 1
$ *CONTROL_IMPLICIT_EIGENVALUE
$ 12
$------------------------ thermal solution keywords ----------------------------
$
*CONTROL_THERMAL_SOLVER
$ atype=0 steadystate (works only with implicit mechanical)
$#   atype     ptype    solver     -----       gpt    eqheat     fwork       sbc
         0         1        12    1.0E-4         8       1.0       0.0       0.0
*CONTROL_THERMAL_TIMESTEP
$#      ts       tip       its      tmin      tmax     dtemp      tscp      lcts
         1       1.0       0.1      0.01       0.1      50.0       0.5         0
$ *CONTROL_TIMESTEP
$ $#  dtinit    tssfac      isdo    tslimt     dt2ms      lctm     erode     ms1st
$        0.1       0.0         0       0.0       0.0         0         0         0
$ $#  dt2msf   dt2mslc     imscl    unused    unused     rmscl    unused      ihdo
$        0.0         0         0                           0.0                   0
*DATABASE_TPRINT
$#      dt    binary      lcur     ioopt
       0.1         0         0         1
*DATABASE_BINARY_D3PLOT
$#      dt      lcdt      beam     npltc    psetid
       0.1         0         0         0         0
$#   ioopt      rate    cutoff    window      type      pset
         0       0.0       0.0       0.0         0         0
*DATABASE_EXTENT_BINARY
$#   neiph     neips    maxint    strflg    sigflg    epsflg    rltflg    engflg
         0         0         3         0         1         1         1         1
$#  cmpflg    ieverp    beamip     dcomp      shge     stssz    n3thdt   ialemat
         0         0         0         1         1         1         2         1
$# nintsld   pkp_sen      sclp     hydro     msscl     therm    intout    nodout
         8         0       1.0         0         0         2
$#    dtdt    resplt     neipb     quadr     cubic
         1         0         0         0         0
$
$---------------  define model geometry and material parameters ----------------
$
*PART
$#                                                                         title
block
$#     pid     secid       mid     eosid      hgid      grav    adpopt      tmid
         1         1         1         0         0         0         0         1
$ *PART
$ $#                                                                         title
$ block
$ $#     pid     secid       mid     eosid      hgid      grav    adpopt      tmid
$          2         1         2         0         0         0         0         2
*SECTION_SOLID
$#   secid    elform       aet    unused    unused    unused    cohoff    unused
$         1         1         0                                       0
1,101
8,0,1
-0.5774,-0.5774,-0.5774,1.0
 0.5774,-0.5774,-0.5774,1.0
 0.5774, 0.5774,-0.5774,1.0
-0.5774, 0.5774,-0.5774,1.0
-0.5774,-0.5774, 0.5774,1.0
 0.5774,-0.5774, 0.5774,1.0
 0.5774, 0.5774, 0.5774,1.0
-0.5774, 0.5774, 0.5774,1.0
$ 1,0,1
$ 0.,0.,0.,8.0
$ *MAT_ELASTIC_PLASTIC_THERMAL
$          1     2700.
$         0.      100.
$    70.e+09   70.e+09
$         .3        .3
$     1.e-06    1.e-06
$
$
$ *MAT_ELASTIC
$          1     8933.  128.85e9      0.34
$ *MAT_THERMAL_ISOTROPIC
$ $#    tmid       tro     tgrlc    tgmult      tlat      hlat
$          1     8933.       0.0         0     273.0       0.0
$ $#      hc        tc
$      383.0     400.0
$ *MAT_ADD_THERMAL_EXPANSION
$ $#     pid      lcid      mult      lcid     multy      lcid     multz
$          1         0   15.4e-6         0       0.0         0       0.0
$ *MAT_ELASTIC
$          2    19300.    408.e9      0.28
$ *MAT_THERMAL_ISOTROPIC
$ $#    tmid       tro     tgrlc    tgmult      tlat      hlat
$          2    19300.       0.0         0     273.0       0.0
$ $#      hc        tc
$      132.0     175.0
$ *MAT_ADD_THERMAL_EXPANSION
$ $#     pid      lcid      mult      lcid     multy      lcid     multz
$          2         0    5.2e-6         0       0.0         0       0.0
*INITIAL_TEMPERATURE_SET
$#    nsid      temp
         0     273.0
*BOUNDARY_TEMPERATURE_SET
         5        33
*DEFINE_FUNCTION
33
float f(float x,float y,float z,float vx,float vy,float vz,float time)
{
$ the set is assumed to contain only the surfaces
$ x,y,z are the coordinates at the current time
 float gradx,grady,gradz;
 gradx=1.0; grady=1.0; gradz=1.0;
 return 273.0 + x*gradx + y*grady + z*gradz;
}
*MAT_USER_DEFINED_MATERIAL_MODELS
$#     mid        ro        mt       lmc       nhv    iortho     ibulk        ig
         1    8933.0        43         8        40         0         4         3
$#   ivect     ifail    itherm    ihyper      ieos      lmca    unused    unused
         0         0         1         0         0         0
$#      p1        p2        p3        p4        p5        p6        p7        p8
  128.85e9      0.34 4.808e+10 1.342e+11         0         0         0         0
*MAT_THERMAL_USER_DEFINED
         1    8933.0        13         8        13         0         1         0


     400.0     400.0     400.0     383.0         0         0         0         0
$ *MAT_USER_DEFINED_MATERIAL_MODELS
$ $#     mid        ro        mt       lmc       nhv    iortho     ibulk        ig
$          2    8933.0        43         8        40         0         4         3
$ $#   ivect     ifail    itherm    ihyper      ieos      lmca    unused    unused
$          0         0         1         0         0         0
$ $#      p1        p2        p3        p4        p5        p6        p7        p8
$   128.85e9      0.34 4.808e+10 1.342e+11         0         0         0         0
$ *MAT_THERMAL_USER_DEFINED
$          2    8933.0        13         8        13         0         1         0
$ 
$ 
$      400.0     400.0     400.0     383.0         0         0         0         0
*INCLUDE
$ rve_simple_3d_mesh_1000el.key $ control points has to be excluded or the thermal solver will cause problems related to high temperature changes at these points eventhoug the solver throws a warning that it ignored these points
simple_3d_mesh_1000el.key
$ *RVE_ANALYSIS_FEM
$ simple_3d_mesh_1000el.key
$ $---+----1----+----2----+----3----+----4----+----5----+----6----+----7----+----8
$ $     inpt      oupt      lcid   idofrve    bctype  iuniform
$          0         1         1         3         0         1
$ $      e11       e22       e33       e23       e13       e12
$       0.01         0         0         0         0         0
$ *DATABASE_RVE
$ 0.1
*DEFINE_CURVE
1
0.0,0.0
1.0,1.0
*END
