*KEYWORD
$ *CONTROL_ACCURACY
$ $#     osu       inn    pidosu      iacc    
$          1         1         0         1
*CONTROL_IMPLICIT_AUTO
$#   iauto    iteopt    itewin     dtmin     dtmax     dtexp     kfail    kcycle
         2        11         5       0.0       0.0       0.0         0         0
*CONTROL_IMPLICIT_GENERAL
$#  imflag       dt0    imform      nsbs       igs     cnstn      form    zero_v
         1      1e-2         2         1         2         0         0         0
*CONTROL_SOLUTION
$#    soln       nlq     isnan     lcint     lcacc     ncdcf     nocop     
         1         0         0       500         0         1         0
*CONTROL_STRUCTURED
*CONTROL_TERMINATION
$#  endtim    endcyc     dtmin    endeng    endmas     nosol     
        01         0       0.0       0.01.000000E8         0
$ *CONTROL_IMPLICIT_DYNAMICS
$ 1
$ *CONTROL_IMPLICIT_EIGENVALUE
$ 12
$
$------------------------ thermal solution keywords ----------------------------
$
*CONTROL_THERMAL_SOLVER
$ atype=0 steadystate (works only with implicit mechanical)
$#   atype     ptype    solver         -       gpt    eqheat     fwork       sbc
         1         0        12                   8         1 1.000E-15       0.0
*CONTROL_THERMAL_TIMESTEP
$#      ts       tip       its      tmin      tmax     dtemp      tscp      lcts
         1       1.0      1e-7     1e-10       0.1      26.0       0.5         0
$ *CONTROL_TIMESTEP
$ $#  dtinit    tssfac      isdo    tslimt     dt2ms      lctm     erode     ms1st
$        0.1       0.0         0       0.0       0.0         0         0         0
$ $#  dt2msf   dt2mslc     imscl    unused    unused     rmscl    unused      ihdo
$        0.0         0         0                           0.0                   0
*DATABASE_TPRINT
$#      dt    binary      lcur     ioopt     
      0.01         0         0         1
*DATABASE_BINARY_D3PLOT
$#      dt      lcdt      beam     npltc    psetid      
      0.01         0         0         0         0
$#   ioopt      rate    cutoff    window      type      pset    
         0       0.0       0.0       0.0         0         0
*DATABASE_EXTENT_BINARY
$#   neiph     neips    maxint    strflg    sigflg    epsflg    rltflg    engflg
         0         0         3         0         1         1         1         1
$#  cmpflg    ieverp    beamip     dcomp      shge     stssz    n3thdt   ialemat
         0         0         0         1         1         1         2         1
$# nintsld   pkp_sen      sclp     hydro     msscl     therm    intout    nodout
         8         0       1.0         0         0         2                    
$         8         0       1.0         0         0         2ALL       ALL
$#    dtdt    resplt     neipb     quadr     cubic     
         1         0         0         0         0
$ *BOUNDARY_TEMPERATURE_SET
$ $#    nsid      lcid     cmult       loc    tdeath    tbirth      
$          4         0     350.0         01.00000E20       0.0
$
$---------------  define model geometry and material parameters ----------------
$
*PART
$#                                                                         title
block
$#     pid     secid       mid     eosid      hgid      grav    adpopt      tmid
         1         1         1         0         0         0         0         1
*PART
$#                                                                         title
block
$#     pid     secid       mid     eosid      hgid      grav    adpopt      tmid
         2         1         1         0         0         0         0         1
*PART
$#                                                                         title
block
$#     pid     secid       mid     eosid      hgid      grav    adpopt      tmid
         3         1         2         0         0         0         0         2
*SECTION_SOLID
$#   secid    elform       aet    unused    unused    unused    cohoff    unused
         1        10         0                                       0          
$ *MAT_ELASTIC
$ $#     mid        ro         e        pr        da        db  not used        
$          1  8933.e-9  128.85e6      0.34       0.0       0.0       0.0
$ *MAT_ELASTIC
$ $#     mid        ro         e        pr        da        db  not used        
$          2 19300.e-9  408.00e6      0.28       0.0       0.0       0.0
*MAT_USER_DEFINED_MATERIAL_MODELS
$#     mid        ro        mt       lmc       nhv    iortho     ibulk        ig
         1  8933.e-9        44         8        40         0         4         3
$#   ivect     ifail    itherm    ihyper      ieos      lmca    unused    unused
         0         0         1         0         0         0                    
$#      p1        p2        p3        p4        p5        p6        p7        p8
  128.85e6      0.34 4.808e+07 1.342e+08         0         0         0         0
*MAT_USER_DEFINED_MATERIAL_MODELS
$#     mid        ro        mt       lmc       nhv    iortho     ibulk        ig
         2 19300.e-9        44         8        40         0         4         3
$#   ivect     ifail    itherm    ihyper      ieos      lmca    unused    unused
         0         0         1         0         0         0                    
$#      p1        p2        p3        p4        p5        p6        p7        p8
  408.00e6      0.28 1.594e+08 3.091e+08         0         0         0         1
$ *MAT_THERMAL_ISOTROPIC
$ $#    tmid       tro     tgrlc    tgmult      tlat      hlat    
$          1  8933.e-9       0.0       0.0     273.0       0.0
$ $#      hc        tc  
$    383.0e6    400.e3
$ *MAT_THERMAL_ISOTROPIC
$ $#    tmid       tro     tgrlc    tgmult      tlat      hlat    
$          2 19300.e-9       0.0       0.0     273.0       0.0
$ $#      hc        tc  
$   132.33e6  174.91e3
*MAT_THERMAL_USER_DEFINED
$#    tmid        ro        mt       lmc       nhv      aopt    iortho      ihve
         1  8933.e-9        14         8        13       0.0         0         0
$#      p1        p2        p3        p4        p5        p6        p7        p8
    400.e3    400.e3    400.e3   383.0e6       0.0       0.0       0.0         0
*MAT_THERMAL_USER_DEFINED
$#    tmid        ro        mt       lmc       nhv      aopt    iortho      ihve
         2 19300.e-9        14         8        13       0.0         0         0
$#      p1        p2        p3        p4        p5        p6        p7        p8
  174.91e3  174.91e3  174.91e3  132.33e6       0.0       0.0       0.0         1
*INITIAL_TEMPERATURE_SET
$#    nsid      temp       loc   
$ preheat 300 to 600
         4     670.0         0
         5    1350.0         0
         6    1350.0         0
*INCLUDE
$#                                                                      filename
mesh.key
*BOUNDARY_CONVECTION_SET
$#    ssid    pserod      
         1         0
$#   hlcid     hmult     tlcid     tmult       loc   
         0       1e3         0     300.0         0
         2         0
         0       100         0     300.0         0
         3         0
         0       500         0     300.0         0
*BOUNDARY_SPC_SET
$#    nsid       cid      dofx      dofy      dofz     dofrx     dofry     dofrz
         1         0         1         1         1         1         1         1
         2         0         0         1         0         0         0         0
         3         0         0         0         1         0         0         0
         7         0         1         0         0         0         0         0
$ *LOAD_THERMAL_D3PLOT
*END
