*KEYWORD
*MAT_ELASTIC
         1   8933e-9    128.e6      0.34
*MAT_THERMAL_ISOTROPIC
$#    tmid       tro     tgrlc    tgmult      tlat      hlat
         1         1       0.0         0     273.0       0.0
$#      hc        tc
 3424.4764    400680
*MAT_ADD_THERMAL_EXPANSION
$#     pid      lcid      mult      lcid     multy      lcid     multz
         1         0 2.367e-05         0       0.0         0       0.0
*END