*KEYWORD
*TITLE
$#                                                                         title
implicit thermo-mechanical problem
$ *CONTROL_ACCURACY
$ 1,,,1
*CONTROL_STRUCTURED
*CONTROL_IMPLICIT_AUTO
$# 2 auto, 0 fixed
$#   iauto    iteopt    itewin     dtmin     dtmax     dtexp     kfail    kcycle
         2
*CONTROL_IMPLICIT_GENERAL
$# 0 explicit, 1 implicit
$#  imflag       dt0    imform      nsbs       igs     cnstn      form    zero_v
         1       0.1
*CONTROL_TERMINATION
$#  endtim    endcyc     dtmin    endeng    endmas     nosol
       1.0         0       0.0       0.0     1.0E8         0
*CONTROL_SOLUTION
$# mechanical, thermal, coupled
$#    soln       nlq     isnan     lcint     lcacc     ncdcf     nocop
         0         0         0       100         0         1         0
$ *CONTROL_IMPLICIT_DYNAMICS
$ 1
$ *CONTROL_IMPLICIT_EIGENVALUE
$ 12
$------------------------ thermal solution keywords ----------------------------
$
*CONTROL_THERMAL_SOLVER
$ atype=0 steadystate (works only with implicit mechanical)
$#   atype     ptype    solver     -----       gpt    eqheat     fwork       sbc
         1         0        12    1.0E-4         8       1.0       0.0       0.0
*CONTROL_THERMAL_TIMESTEP
$#      ts       tip       its      tmin      tmax     dtemp      tscp      lcts
         1       1.0       0.1      0.01       0.1      10.0       0.5         0
$ *CONTROL_TIMESTEP
$ $#  dtinit    tssfac      isdo    tslimt     dt2ms      lctm     erode     ms1st
$        0.1       0.0         0       0.0       0.0         0         0         0
$ $#  dt2msf   dt2mslc     imscl    unused    unused     rmscl    unused      ihdo
$        0.0         0         0                           0.0                   0
*DATABASE_TPRINT
$#      dt    binary      lcur     ioopt
       0.1         0         0         1
*DATABASE_BINARY_D3PLOT
$#      dt      lcdt      beam     npltc    psetid
       0.1         0         0         0         0
$#   ioopt      rate    cutoff    window      type      pset
         0       0.0       0.0       0.0         0         0
*DATABASE_EXTENT_BINARY
$#   neiph     neips    maxint    strflg    sigflg    epsflg    rltflg    engflg
         0         0         3         0         1         1         1         1
$#  cmpflg    ieverp    beamip     dcomp      shge     stssz    n3thdt   ialemat
         0         0         0         1         1         1         2         1
$# nintsld   pkp_sen      sclp     hydro     msscl     therm    intout    nodout
         8         0       1.0         0         0         2
$#    dtdt    resplt     neipb     quadr     cubic
         1         0         0         0         0
$
$---------------  define model geometry and material parameters ----------------
$
*PART
$#                                                                         title
block
$#     pid     secid       mid     eosid      hgid      grav    adpopt      tmid
         1         1         1         0         0         0         0         1
*PART
$#                                                                         title
block
$#     pid     secid       mid     eosid      hgid      grav    adpopt      tmid
         2         1         2         0         0         0         0         2
$ *SECTION_SHELL
$ $#   secid    elform      shrf       nip     propt   qr/irid     icomp     setyp
$          1         1      0.83         1       1.0         0         0         1
$ $#      t1        t2        t3        t4      nloc     marea      idof    edgset
$ 1.00000E-51.00000E-51.00000E-51.00000E-5       0.0       0.0       0.0         0
*SECTION_SHELL
1,101
1.00000E-5,1.00000E-5,1.00000E-5,1.00000E-5
1,0,0,1
0,0,4
*MAT_ELASTIC
         1     8933.  128.85e9      0.34
*MAT_THERMAL_ISOTROPIC
$#    tmid       tro     tgrlc    tgmult      tlat      hlat
         1     8933.       0.0         0     273.0       0.0
$#      hc        tc
     383.0     400.0
*MAT_ADD_THERMAL_EXPANSION
$#     pid      lcid      mult      lcid     multy      lcid     multz
         1         0   15.4e-6         0       0.0         0       0.0
*MAT_ELASTIC
         2    19300.    408.e9      0.28
*MAT_THERMAL_ISOTROPIC
$#    tmid       tro     tgrlc    tgmult      tlat      hlat
         2    19300.       0.0         0     273.0       0.0
$#      hc        tc
     132.0     175.0
*MAT_ADD_THERMAL_EXPANSION
$#     pid      lcid      mult      lcid     multy      lcid     multz
         2         0    5.2e-6         0       0.0         0       0.0
*INITIAL_TEMPERATURE_SET
$#    nsid      temp
         0     273.0
*BOUNDARY_TEMPERATURE_SET
         5        33
*DEFINE_FUNCTION
33
float f(float x,float y)
{
$ the set is assumed to contain only the surfaces
$ x,y,z are the coordinates at the current time
 float gradx,grady;
 gradx=1.0; grady=1.0;
 return 273.0 + x*gradx + y*grady;
}
*INCLUDE
rve_mesh.key
$ *RVE_ANALYSIS_FEM
$ $ mesh.key
$ $---+----1----+----2----+----3----+----4----+----5----+----6----+----7----+----8
$ $     inpt      oupt      lcid   idofrve    bctype  iuniform
$          0         1         1         2         0         1
$ $      e11       e22       e33       e23       e13       e12
$          0         0         0         0         0      0.15
$ $         0         1         0         0         0         0
$ $         0         0         0         0         0         1
$ *DATABASE_RVE
$ 0.1
*DEFINE_CURVE
1
0.0,0.0
1.0,1.0
*END
