$# LS-DYNA Keyword file created by LS-PrePost(R) V4.9 (Beta) - 07Mar2022
$# Created on Apr-17-2022 (12:38:14)
*KEYWORD   
*TITLE
$#                                                                         title
LS-DYNA keyword deck by LS-PrePost
*PART
$#                                                                         title
part 13
$#     pid     secid       mid     eosid      hgid      grav    adpopt      tmid
        13         1         0         0         0         0         0        13
*SECTION_SOLID
$#   secid    elform       aet    unused    unused    unused    cohoff   gaskeit
         1        -2         0                                     0.0       0.0
*PART
$#                                                                         title
part 15
$#     pid     secid       mid     eosid      hgid      grav    adpopt      tmid
        15         1         0         0         0         0         0        15
*PART
$#                                                                         title
part 17
$#     pid     secid       mid     eosid      hgid      grav    adpopt      tmid
        17         1         0         0         0         0         0        17
*PART
$#                                                                         title
part 19
$#     pid     secid       mid     eosid      hgid      grav    adpopt      tmid
        19         1         0         0         0         0         0        19
*PART
$#                                                                         title
part 21
$#     pid     secid       mid     eosid      hgid      grav    adpopt      tmid
        21         1         0         0         0         0         0        21
*PART
$#                                                                         title
part 30
$#     pid     secid       mid     eosid      hgid      grav    adpopt      tmid
        30         1         0         0         0         0         0        30
*PART
$#                                                                         title
part 31
$#     pid     secid       mid     eosid      hgid      grav    adpopt      tmid
        31         1         0         0         0         0         0        31
*PART
$#                                                                         title
part 32
$#     pid     secid       mid     eosid      hgid      grav    adpopt      tmid
        32         1         0         0         0         0         0        32
*PART
$#                                                                         title
part 33
$#     pid     secid       mid     eosid      hgid      grav    adpopt      tmid
        33         1         0         0         0         0         0        33
*PART
$#                                                                         title
part 34
$#     pid     secid       mid     eosid      hgid      grav    adpopt      tmid
        34         1         0         0         0         0         0        34
*PART
$#                                                                         title
part 35
$#     pid     secid       mid     eosid      hgid      grav    adpopt      tmid
        35         1         0         0         0         0         0        35
*PART
$#                                                                         title
part 36
$#     pid     secid       mid     eosid      hgid      grav    adpopt      tmid
        36         1         0         0         0         0         0        36
*PART
$#                                                                         title
part 44
$#     pid     secid       mid     eosid      hgid      grav    adpopt      tmid
        44         1         0         0         0         0         0        44
*PART
$#                                                                         title
part 45
$#     pid     secid       mid     eosid      hgid      grav    adpopt      tmid
        45         1         0         0         0         0         0        45
*PART
$#                                                                         title
part 46
$#     pid     secid       mid     eosid      hgid      grav    adpopt      tmid
        46         1         0         0         0         0         0        46
*PART
$#                                                                         title
part 47
$#     pid     secid       mid     eosid      hgid      grav    adpopt      tmid
        47         1         0         0         0         0         0        47
*PART
$#                                                                         title
part 48
$#     pid     secid       mid     eosid      hgid      grav    adpopt      tmid
        48         1         0         0         0         0         0        48
*PART
$#                                                                         title
part 49
$#     pid     secid       mid     eosid      hgid      grav    adpopt      tmid
        49         1         0         0         0         0         0        49
*PART
$#                                                                         title
part 50
$#     pid     secid       mid     eosid      hgid      grav    adpopt      tmid
        50         1         0         0         0         0         0        50
*PART
$#                                                                         title
part 58
$#     pid     secid       mid     eosid      hgid      grav    adpopt      tmid
        58         1         0         0         0         0         0        58
*PART
$#                                                                         title
part 59
$#     pid     secid       mid     eosid      hgid      grav    adpopt      tmid
        59         1         0         0         0         0         0        59
*PART
$#                                                                         title
part 60
$#     pid     secid       mid     eosid      hgid      grav    adpopt      tmid
        60         1         0         0         0         0         0        60
*PART
$#                                                                         title
part 61
$#     pid     secid       mid     eosid      hgid      grav    adpopt      tmid
        61         1         0         0         0         0         0        61
*PART
$#                                                                         title
part 62
$#     pid     secid       mid     eosid      hgid      grav    adpopt      tmid
        62         1         0         0         0         0         0        62
*PART
$#                                                                         title
part 63
$#     pid     secid       mid     eosid      hgid      grav    adpopt      tmid
        63         1         0         0         0         0         0        63
*PART
$#                                                                         title
part 64
$#     pid     secid       mid     eosid      hgid      grav    adpopt      tmid
        64         1         0         0         0         0         0        64
*PART
$#                                                                         title
part 72
$#     pid     secid       mid     eosid      hgid      grav    adpopt      tmid
        72         1         0         0         0         0         0        72
*PART
$#                                                                         title
part 73
$#     pid     secid       mid     eosid      hgid      grav    adpopt      tmid
        73         1         0         0         0         0         0        73
*PART
$#                                                                         title
part 74
$#     pid     secid       mid     eosid      hgid      grav    adpopt      tmid
        74         1         0         0         0         0         0        74
*PART
$#                                                                         title
part 75
$#     pid     secid       mid     eosid      hgid      grav    adpopt      tmid
        75         1         0         0         0         0         0        75
*PART
$#                                                                         title
part 76
$#     pid     secid       mid     eosid      hgid      grav    adpopt      tmid
        76         1         0         0         0         0         0        76
*PART
$#                                                                         title
part 77
$#     pid     secid       mid     eosid      hgid      grav    adpopt      tmid
        77         1         0         0         0         0         0        77
*PART
$#                                                                         title
part 78
$#     pid     secid       mid     eosid      hgid      grav    adpopt      tmid
        78         1         0         0         0         0         0        78
*PART
$#                                                                         title
part 86
$#     pid     secid       mid     eosid      hgid      grav    adpopt      tmid
        86         1         0         0         0         0         0        86
*PART
$#                                                                         title
part 87
$#     pid     secid       mid     eosid      hgid      grav    adpopt      tmid
        87         1         0         0         0         0         0        87
*PART
$#                                                                         title
part 88
$#     pid     secid       mid     eosid      hgid      grav    adpopt      tmid
        88         1         0         0         0         0         0        88
*PART
$#                                                                         title
part 89
$#     pid     secid       mid     eosid      hgid      grav    adpopt      tmid
        89         1         0         0         0         0         0        89
*PART
$#                                                                         title
part 90
$#     pid     secid       mid     eosid      hgid      grav    adpopt      tmid
        90         1         0         0         0         0         0        90
*PART
$#                                                                         title
part 91
$#     pid     secid       mid     eosid      hgid      grav    adpopt      tmid
        91         1         0         0         0         0         0        91
*PART
$#                                                                         title
part 92
$#     pid     secid       mid     eosid      hgid      grav    adpopt      tmid
        92         1         0         0         0         0         0        92
*PART
$#                                                                         title
part 93
$#     pid     secid       mid     eosid      hgid      grav    adpopt      tmid
        93         1         0         0         0         0         0        92
*PART
$#                                                                         title
part 94
$#     pid     secid       mid     eosid      hgid      grav    adpopt      tmid
        94         1         0         0         0         0         0        92
*PART
$#                                                                         title
part 95
$#     pid     secid       mid     eosid      hgid      grav    adpopt      tmid
        95         1         0         0         0         0         0        92
*PART
$#                                                                         title
part 96
$#     pid     secid       mid     eosid      hgid      grav    adpopt      tmid
        96         1         0         0         0         0         0        92
*PART
$#                                                                         title
part 97
$#     pid     secid       mid     eosid      hgid      grav    adpopt      tmid
        97         1         0         0         0         0         0        92
*PART
$#                                                                         title
part 98
$#     pid     secid       mid     eosid      hgid      grav    adpopt      tmid
        98         1         0         0         0         0         0        92
*PART
$#                                                                         title
part 99
$#     pid     secid       mid     eosid      hgid      grav    adpopt      tmid
        99         1         0         0         0         0         0        92
*MAT_THERMAL_CWM_TITLE
segment 13
$#    tmid       tro     tgrlc    tgmult     hdead     tdead      tlat      hlat
        138.93300E-6       0.0       0.0       0.0       0.0       0.0       0.0
$#    lchc      lctc   tlstart     tlend   tistart     tiend    hghost    tghost
        11        12       0.0       0.0       0.0       0.1       0.0       0.0
*MAT_THERMAL_CWM_TITLE
segment 15
$#    tmid       tro     tgrlc    tgmult     hdead     tdead      tlat      hlat
        158.93300E-6       0.0       0.0       0.0       0.0       0.0       0.0
$#    lchc      lctc   tlstart     tlend   tistart     tiend    hghost    tghost
        11        12       0.0       0.0      16.0      16.1       0.0       0.0
*MAT_THERMAL_CWM_TITLE
segment 17
$#    tmid       tro     tgrlc    tgmult     hdead     tdead      tlat      hlat
        178.93300E-6       0.0       0.0       0.0       0.0       0.0       0.0
$#    lchc      lctc   tlstart     tlend   tistart     tiend    hghost    tghost
        11        12       0.0       0.0      32.0      32.1       0.0       0.0
*MAT_THERMAL_CWM_TITLE
segment 19
$#    tmid       tro     tgrlc    tgmult     hdead     tdead      tlat      hlat
        198.93300E-6       0.0       0.0       0.0       0.0       0.0       0.0
$#    lchc      lctc   tlstart     tlend   tistart     tiend    hghost    tghost
        11        12       0.0       0.0      48.0      48.1       0.0       0.0
*MAT_THERMAL_CWM_TITLE
segment 21
$#    tmid       tro     tgrlc    tgmult     hdead     tdead      tlat      hlat
        218.93300E-6       0.0       0.0       0.0       0.0       0.0       0.0
$#    lchc      lctc   tlstart     tlend   tistart     tiend    hghost    tghost
        11        12       0.0       0.0      64.0      64.1       0.0       0.0
*MAT_THERMAL_CWM_TITLE
segment 30
$#    tmid       tro     tgrlc    tgmult     hdead     tdead      tlat      hlat
        308.93300E-6       0.0       0.0       0.0       0.0       0.0       0.0
$#    lchc      lctc   tlstart     tlend   tistart     tiend    hghost    tghost
        11        12       0.0       0.0       1.0       1.1       0.0       0.0
*MAT_THERMAL_CWM_TITLE
segment 31
$#    tmid       tro     tgrlc    tgmult     hdead     tdead      tlat      hlat
        318.93300E-6       0.0       0.0       0.0       0.0       0.0       0.0
$#    lchc      lctc   tlstart     tlend   tistart     tiend    hghost    tghost
        11        12       0.0       0.0       2.0       2.1       0.0       0.0
*MAT_THERMAL_CWM_TITLE
segment 32
$#    tmid       tro     tgrlc    tgmult     hdead     tdead      tlat      hlat
        328.93300E-6       0.0       0.0       0.0       0.0       0.0       0.0
$#    lchc      lctc   tlstart     tlend   tistart     tiend    hghost    tghost
        11        12       0.0       0.0       3.0       3.1       0.0       0.0
*MAT_THERMAL_CWM_TITLE
segment 33
$#    tmid       tro     tgrlc    tgmult     hdead     tdead      tlat      hlat
        338.93300E-6       0.0       0.0       0.0       0.0       0.0       0.0
$#    lchc      lctc   tlstart     tlend   tistart     tiend    hghost    tghost
        11        12       0.0       0.0       4.0       4.1       0.0       0.0
*MAT_THERMAL_CWM_TITLE
segment 34
$#    tmid       tro     tgrlc    tgmult     hdead     tdead      tlat      hlat
        348.93300E-6       0.0       0.0       0.0       0.0       0.0       0.0
$#    lchc      lctc   tlstart     tlend   tistart     tiend    hghost    tghost
        11        12       0.0       0.0       5.0       5.1       0.0       0.0
*MAT_THERMAL_CWM_TITLE
segment 35
$#    tmid       tro     tgrlc    tgmult     hdead     tdead      tlat      hlat
        358.93300E-6       0.0       0.0       0.0       0.0       0.0       0.0
$#    lchc      lctc   tlstart     tlend   tistart     tiend    hghost    tghost
        11        12       0.0       0.0       6.0       6.1       0.0       0.0
*MAT_THERMAL_CWM_TITLE
segment 36
$#    tmid       tro     tgrlc    tgmult     hdead     tdead      tlat      hlat
        368.93300E-6       0.0       0.0       0.0       0.0       0.0       0.0
$#    lchc      lctc   tlstart     tlend   tistart     tiend    hghost    tghost
        11        12       0.0       0.0       7.0       7.1       0.0       0.0
*MAT_THERMAL_CWM_TITLE
segment 44
$#    tmid       tro     tgrlc    tgmult     hdead     tdead      tlat      hlat
        448.93300E-6       0.0       0.0       0.0       0.0       0.0       0.0
$#    lchc      lctc   tlstart     tlend   tistart     tiend    hghost    tghost
        11        12       0.0       0.0      17.0      17.1       0.0       0.0
*MAT_THERMAL_CWM_TITLE
segment 45
$#    tmid       tro     tgrlc    tgmult     hdead     tdead      tlat      hlat
        458.93300E-6       0.0       0.0       0.0       0.0       0.0       0.0
$#    lchc      lctc   tlstart     tlend   tistart     tiend    hghost    tghost
        11        12       0.0       0.0      18.0      18.1       0.0       0.0
*MAT_THERMAL_CWM_TITLE
segment 46
$#    tmid       tro     tgrlc    tgmult     hdead     tdead      tlat      hlat
        468.93300E-6       0.0       0.0       0.0       0.0       0.0       0.0
$#    lchc      lctc   tlstart     tlend   tistart     tiend    hghost    tghost
        11        12       0.0       0.0      19.0      19.1       0.0       0.0
*MAT_THERMAL_CWM_TITLE
segment 47
$#    tmid       tro     tgrlc    tgmult     hdead     tdead      tlat      hlat
        478.93300E-6       0.0       0.0       0.0       0.0       0.0       0.0
$#    lchc      lctc   tlstart     tlend   tistart     tiend    hghost    tghost
        11        12       0.0       0.0      20.0      20.1       0.0       0.0
*MAT_THERMAL_CWM_TITLE
segment 48
$#    tmid       tro     tgrlc    tgmult     hdead     tdead      tlat      hlat
        488.93300E-6       0.0       0.0       0.0       0.0       0.0       0.0
$#    lchc      lctc   tlstart     tlend   tistart     tiend    hghost    tghost
        11        12       0.0       0.0      21.0      21.1       0.0       0.0
*MAT_THERMAL_CWM_TITLE
segment 49
$#    tmid       tro     tgrlc    tgmult     hdead     tdead      tlat      hlat
        498.93300E-6       0.0       0.0       0.0       0.0       0.0       0.0
$#    lchc      lctc   tlstart     tlend   tistart     tiend    hghost    tghost
        11        12       0.0       0.0      22.0      22.1       0.0       0.0
*MAT_THERMAL_CWM_TITLE
segment 50
$#    tmid       tro     tgrlc    tgmult     hdead     tdead      tlat      hlat
        508.93300E-6       0.0       0.0       0.0       0.0       0.0       0.0
$#    lchc      lctc   tlstart     tlend   tistart     tiend    hghost    tghost
        11        12       0.0       0.0      23.0      23.1       0.0       0.0
*MAT_THERMAL_CWM_TITLE
segment 58
$#    tmid       tro     tgrlc    tgmult     hdead     tdead      tlat      hlat
        588.93300E-6       0.0       0.0       0.0       0.0       0.0       0.0
$#    lchc      lctc   tlstart     tlend   tistart     tiend    hghost    tghost
        11        12       0.0       0.0      33.0      33.1       0.0       0.0
*MAT_THERMAL_CWM_TITLE
segment 59
$#    tmid       tro     tgrlc    tgmult     hdead     tdead      tlat      hlat
        598.93300E-6       0.0       0.0       0.0       0.0       0.0       0.0
$#    lchc      lctc   tlstart     tlend   tistart     tiend    hghost    tghost
        11        12       0.0       0.0      34.0      34.1       0.0       0.0
*MAT_THERMAL_CWM_TITLE
segment 60
$#    tmid       tro     tgrlc    tgmult     hdead     tdead      tlat      hlat
        608.93300E-6       0.0       0.0       0.0       0.0       0.0       0.0
$#    lchc      lctc   tlstart     tlend   tistart     tiend    hghost    tghost
        11        12       0.0       0.0      35.0      35.1       0.0       0.0
*MAT_THERMAL_CWM_TITLE
segment 61
$#    tmid       tro     tgrlc    tgmult     hdead     tdead      tlat      hlat
        618.93300E-6       0.0       0.0       0.0       0.0       0.0       0.0
$#    lchc      lctc   tlstart     tlend   tistart     tiend    hghost    tghost
        11        12       0.0       0.0      36.0      36.1       0.0       0.0
*MAT_THERMAL_CWM_TITLE
segment 62
$#    tmid       tro     tgrlc    tgmult     hdead     tdead      tlat      hlat
        628.93300E-6       0.0       0.0       0.0       0.0       0.0       0.0
$#    lchc      lctc   tlstart     tlend   tistart     tiend    hghost    tghost
        11        12       0.0       0.0      37.0      37.1       0.0       0.0
*MAT_THERMAL_CWM_TITLE
segment 63
$#    tmid       tro     tgrlc    tgmult     hdead     tdead      tlat      hlat
        638.93300E-6       0.0       0.0       0.0       0.0       0.0       0.0
$#    lchc      lctc   tlstart     tlend   tistart     tiend    hghost    tghost
        11        12       0.0       0.0      38.0      38.1       0.0       0.0
*MAT_THERMAL_CWM_TITLE
segment 64
$#    tmid       tro     tgrlc    tgmult     hdead     tdead      tlat      hlat
        648.93300E-6       0.0       0.0       0.0       0.0       0.0       0.0
$#    lchc      lctc   tlstart     tlend   tistart     tiend    hghost    tghost
        11        12       0.0       0.0      39.0      39.1       0.0       0.0
*MAT_THERMAL_CWM_TITLE
segment 72
$#    tmid       tro     tgrlc    tgmult     hdead     tdead      tlat      hlat
        728.93300E-6       0.0       0.0       0.0       0.0       0.0       0.0
$#    lchc      lctc   tlstart     tlend   tistart     tiend    hghost    tghost
        11        12       0.0       0.0      49.0      49.1       0.0       0.0
*MAT_THERMAL_CWM_TITLE
segment 73
$#    tmid       tro     tgrlc    tgmult     hdead     tdead      tlat      hlat
        738.93300E-6       0.0       0.0       0.0       0.0       0.0       0.0
$#    lchc      lctc   tlstart     tlend   tistart     tiend    hghost    tghost
        11        12       0.0       0.0      50.0      50.1       0.0       0.0
*MAT_THERMAL_CWM_TITLE
segment 74
$#    tmid       tro     tgrlc    tgmult     hdead     tdead      tlat      hlat
        748.93300E-6       0.0       0.0       0.0       0.0       0.0       0.0
$#    lchc      lctc   tlstart     tlend   tistart     tiend    hghost    tghost
        11        12       0.0       0.0      51.0      51.1       0.0       0.0
*MAT_THERMAL_CWM_TITLE
segment 75
$#    tmid       tro     tgrlc    tgmult     hdead     tdead      tlat      hlat
        758.93300E-6       0.0       0.0       0.0       0.0       0.0       0.0
$#    lchc      lctc   tlstart     tlend   tistart     tiend    hghost    tghost
        11        12       0.0       0.0      52.0      52.1       0.0       0.0
*MAT_THERMAL_CWM_TITLE
segment 76
$#    tmid       tro     tgrlc    tgmult     hdead     tdead      tlat      hlat
        768.93300E-6       0.0       0.0       0.0       0.0       0.0       0.0
$#    lchc      lctc   tlstart     tlend   tistart     tiend    hghost    tghost
        11        12       0.0       0.0      53.0      53.1       0.0       0.0
*MAT_THERMAL_CWM_TITLE
segment 77
$#    tmid       tro     tgrlc    tgmult     hdead     tdead      tlat      hlat
        778.93300E-6       0.0       0.0       0.0       0.0       0.0       0.0
$#    lchc      lctc   tlstart     tlend   tistart     tiend    hghost    tghost
        11        12       0.0       0.0      54.0      54.1       0.0       0.0
*MAT_THERMAL_CWM_TITLE
segment 78
$#    tmid       tro     tgrlc    tgmult     hdead     tdead      tlat      hlat
        788.93300E-6       0.0       0.0       0.0       0.0       0.0       0.0
$#    lchc      lctc   tlstart     tlend   tistart     tiend    hghost    tghost
        11        12       0.0       0.0      55.0      55.1       0.0       0.0
*MAT_THERMAL_CWM_TITLE
segment 86
$#    tmid       tro     tgrlc    tgmult     hdead     tdead      tlat      hlat
        868.93300E-6       0.0       0.0       0.0       0.0       0.0       0.0
$#    lchc      lctc   tlstart     tlend   tistart     tiend    hghost    tghost
        11        12       0.0       0.0      65.0      65.1       0.0       0.0
*MAT_THERMAL_CWM_TITLE
segment 87
$#    tmid       tro     tgrlc    tgmult     hdead     tdead      tlat      hlat
        878.93300E-6       0.0       0.0       0.0       0.0       0.0       0.0
$#    lchc      lctc   tlstart     tlend   tistart     tiend    hghost    tghost
        11        12       0.0       0.0      66.0      66.1       0.0       0.0
*MAT_THERMAL_CWM_TITLE
segment 88
$#    tmid       tro     tgrlc    tgmult     hdead     tdead      tlat      hlat
        888.93300E-6       0.0       0.0       0.0       0.0       0.0       0.0
$#    lchc      lctc   tlstart     tlend   tistart     tiend    hghost    tghost
        11        12       0.0       0.0      67.0      67.1       0.0       0.0
*MAT_THERMAL_CWM_TITLE
segment 89
$#    tmid       tro     tgrlc    tgmult     hdead     tdead      tlat      hlat
        898.93300E-6       0.0       0.0       0.0       0.0       0.0       0.0
$#    lchc      lctc   tlstart     tlend   tistart     tiend    hghost    tghost
        11        12       0.0       0.0      68.0      68.1       0.0       0.0
*MAT_THERMAL_CWM_TITLE
segment 90
$#    tmid       tro     tgrlc    tgmult     hdead     tdead      tlat      hlat
        908.93300E-6       0.0       0.0       0.0       0.0       0.0       0.0
$#    lchc      lctc   tlstart     tlend   tistart     tiend    hghost    tghost
        11        12       0.0       0.0      69.0      69.1       0.0       0.0
*MAT_THERMAL_CWM_TITLE
segment 91
$#    tmid       tro     tgrlc    tgmult     hdead     tdead      tlat      hlat
        918.93300E-6       0.0       0.0       0.0       0.0       0.0       0.0
$#    lchc      lctc   tlstart     tlend   tistart     tiend    hghost    tghost
        11        12       0.0       0.0      70.0      70.1       0.0       0.0
*MAT_THERMAL_CWM_TITLE
segment 92
$#    tmid       tro     tgrlc    tgmult     hdead     tdead      tlat      hlat
        928.93300E-6       0.0       0.0       0.0       0.0       0.0       0.0
$#    lchc      lctc   tlstart     tlend   tistart     tiend    hghost    tghost
        11        12       0.0       0.0      71.0      71.1       0.0       0.0
*END
