*KEYWORD
*SECTION_SOLID
$# solid section
1,-2,0,0,0,0,0,0
$#
*MAT_THERMAL_CWM_TITLE
segment 13
        13 8.933e-06       0.0       0.0     0.000     0.000     0.000     0.000
        11        12         0         0         0       0.1       0.0       0.0
*PART
part 13
13,1,0,0,0,0,0,13
$#
*MAT_THERMAL_CWM_TITLE
segment 30
30,8.933e-06,0.0,0.0,0.0,0.0,0.0,0.0
11,12,0,0,1.0,1.1,0.0,0.0
*PART
part 30
30,1,0,0,0,0,0,30
$#
*MAT_THERMAL_CWM_TITLE
segment 31
31,8.933e-06,0.0,0.0,0.0,0.0,0.0,0.0
11,12,0,0,2.0,2.1,0.0,0.0
*PART
part 31
31,1,0,0,0,0,0,31
$#
*MAT_THERMAL_CWM_TITLE
segment 32
32,8.933e-06,0.0,0.0,0.0,0.0,0.0,0.0
11,12,0,0,3.0,3.1,0.0,0.0
*PART
part 32
32,1,0,0,0,0,0,32
$#
*MAT_THERMAL_CWM_TITLE
segment 33
33,8.933e-06,0.0,0.0,0.0,0.0,0.0,0.0
11,12,0,0,4.0,4.1,0.0,0.0
*PART
part 33
33,1,0,0,0,0,0,33
$#
*MAT_THERMAL_CWM_TITLE
segment 34
34,8.933e-06,0.0,0.0,0.0,0.0,0.0,0.0
11,12,0,0,5.0,5.1,0.0,0.0
*PART
part 34
34,1,0,0,0,0,0,34
$#
*MAT_THERMAL_CWM_TITLE
segment 35
35,8.933e-06,0.0,0.0,0.0,0.0,0.0,0.0
11,12,0,0,6.0,6.1,0.0,0.0
*PART
part 35
35,1,0,0,0,0,0,35
$#
*MAT_THERMAL_CWM_TITLE
segment 36
36,8.933e-06,0.0,0.0,0.0,0.0,0.0,0.0
11,12,0,0,7.0,7.1,0.0,0.0
*PART
part 36
36,1,0,0,0,0,0,36
$#
*MAT_THERMAL_CWM_TITLE
segment 15
15,8.933e-06,0.0,0.0,0.0,0.0,0.0,0.0
11,12,0,0,16.0,16.1,0.0,0.0
*PART
part 15
15,1,0,0,0,0,0,15
$#
*MAT_THERMAL_CWM_TITLE
segment 44
44,8.933e-06,0.0,0.0,0.0,0.0,0.0,0.0
11,12,0,0,17.0,17.1,0.0,0.0
*PART
part 44
44,1,0,0,0,0,0,44
$#
*MAT_THERMAL_CWM_TITLE
segment 45
45,8.933e-06,0.0,0.0,0.0,0.0,0.0,0.0
11,12,0,0,18.0,18.1,0.0,0.0
*PART
part 45
45,1,0,0,0,0,0,45
$#
*MAT_THERMAL_CWM_TITLE
segment 46
46,8.933e-06,0.0,0.0,0.0,0.0,0.0,0.0
11,12,0,0,19.0,19.1,0.0,0.0
*PART
part 46
46,1,0,0,0,0,0,46
$#
*MAT_THERMAL_CWM_TITLE
segment 47
47,8.933e-06,0.0,0.0,0.0,0.0,0.0,0.0
11,12,0,0,20.0,20.1,0.0,0.0
*PART
part 47
47,1,0,0,0,0,0,47
$#
*MAT_THERMAL_CWM_TITLE
segment 48
48,8.933e-06,0.0,0.0,0.0,0.0,0.0,0.0
11,12,0,0,21.0,21.1,0.0,0.0
*PART
part 48
48,1,0,0,0,0,0,48
$#
*MAT_THERMAL_CWM_TITLE
segment 49
49,8.933e-06,0.0,0.0,0.0,0.0,0.0,0.0
11,12,0,0,22.0,22.1,0.0,0.0
*PART
part 49
49,1,0,0,0,0,0,49
$#
*MAT_THERMAL_CWM_TITLE
segment 50
50,8.933e-06,0.0,0.0,0.0,0.0,0.0,0.0
11,12,0,0,23.0,23.1,0.0,0.0
*PART
part 50
50,1,0,0,0,0,0,50
$#
*MAT_THERMAL_CWM_TITLE
segment 17
17,8.933e-06,0.0,0.0,0.0,0.0,0.0,0.0
11,12,0,0,32.0,32.1,0.0,0.0
*PART
part 17
17,1,0,0,0,0,0,17
$#
*MAT_THERMAL_CWM_TITLE
segment 58
58,8.933e-06,0.0,0.0,0.0,0.0,0.0,0.0
11,12,0,0,33.0,33.1,0.0,0.0
*PART
part 58
58,1,0,0,0,0,0,58
$#
*MAT_THERMAL_CWM_TITLE
segment 59
59,8.933e-06,0.0,0.0,0.0,0.0,0.0,0.0
11,12,0,0,34.0,34.1,0.0,0.0
*PART
part 59
59,1,0,0,0,0,0,59
$#
*MAT_THERMAL_CWM_TITLE
segment 60
60,8.933e-06,0.0,0.0,0.0,0.0,0.0,0.0
11,12,0,0,35.0,35.1,0.0,0.0
*PART
part 60
60,1,0,0,0,0,0,60
$#
*MAT_THERMAL_CWM_TITLE
segment 61
61,8.933e-06,0.0,0.0,0.0,0.0,0.0,0.0
11,12,0,0,36.0,36.1,0.0,0.0
*PART
part 61
61,1,0,0,0,0,0,61
$#
*MAT_THERMAL_CWM_TITLE
segment 62
62,8.933e-06,0.0,0.0,0.0,0.0,0.0,0.0
11,12,0,0,37.0,37.1,0.0,0.0
*PART
part 62
62,1,0,0,0,0,0,62
$#
*MAT_THERMAL_CWM_TITLE
segment 63
63,8.933e-06,0.0,0.0,0.0,0.0,0.0,0.0
11,12,0,0,38.0,38.1,0.0,0.0
*PART
part 63
63,1,0,0,0,0,0,63
$#
*MAT_THERMAL_CWM_TITLE
segment 64
64,8.933e-06,0.0,0.0,0.0,0.0,0.0,0.0
11,12,0,0,39.0,39.1,0.0,0.0
*PART
part 64
64,1,0,0,0,0,0,64
$#
*MAT_THERMAL_CWM_TITLE
segment 19
19,8.933e-06,0.0,0.0,0.0,0.0,0.0,0.0
11,12,0,0,48.0,48.1,0.0,0.0
*PART
part 19
19,1,0,0,0,0,0,19
$#
*MAT_THERMAL_CWM_TITLE
segment 72
72,8.933e-06,0.0,0.0,0.0,0.0,0.0,0.0
11,12,0,0,49.0,49.1,0.0,0.0
*PART
part 72
72,1,0,0,0,0,0,72
$#
*MAT_THERMAL_CWM_TITLE
segment 73
73,8.933e-06,0.0,0.0,0.0,0.0,0.0,0.0
11,12,0,0,50.0,50.1,0.0,0.0
*PART
part 73
73,1,0,0,0,0,0,73
$#
*MAT_THERMAL_CWM_TITLE
segment 74
74,8.933e-06,0.0,0.0,0.0,0.0,0.0,0.0
11,12,0,0,51.0,51.1,0.0,0.0
*PART
part 74
74,1,0,0,0,0,0,74
$#
*MAT_THERMAL_CWM_TITLE
segment 75
75,8.933e-06,0.0,0.0,0.0,0.0,0.0,0.0
11,12,0,0,52.0,52.1,0.0,0.0
*PART
part 75
75,1,0,0,0,0,0,75
$#
*MAT_THERMAL_CWM_TITLE
segment 76
76,8.933e-06,0.0,0.0,0.0,0.0,0.0,0.0
11,12,0,0,53.0,53.1,0.0,0.0
*PART
part 76
76,1,0,0,0,0,0,76
$#
*MAT_THERMAL_CWM_TITLE
segment 77
77,8.933e-06,0.0,0.0,0.0,0.0,0.0,0.0
11,12,0,0,54.0,54.1,0.0,0.0
*PART
part 77
77,1,0,0,0,0,0,77
$#
*MAT_THERMAL_CWM_TITLE
segment 78
78,8.933e-06,0.0,0.0,0.0,0.0,0.0,0.0
11,12,0,0,55.0,55.1,0.0,0.0
*PART
part 78
78,1,0,0,0,0,0,78
$#
*MAT_THERMAL_CWM_TITLE
segment 21
21,8.933e-06,0.0,0.0,0.0,0.0,0.0,0.0
11,12,0,0,64.0,64.1,0.0,0.0
*PART
part 21
21,1,0,0,0,0,0,21
$#
*MAT_THERMAL_CWM_TITLE
segment 86
86,8.933e-06,0.0,0.0,0.0,0.0,0.0,0.0
11,12,0,0,65.0,65.1,0.0,0.0
*PART
part 86
86,1,0,0,0,0,0,86
$#
*MAT_THERMAL_CWM_TITLE
segment 87
87,8.933e-06,0.0,0.0,0.0,0.0,0.0,0.0
11,12,0,0,66.0,66.1,0.0,0.0
*PART
part 87
87,1,0,0,0,0,0,87
$#
*MAT_THERMAL_CWM_TITLE
segment 88
88,8.933e-06,0.0,0.0,0.0,0.0,0.0,0.0
11,12,0,0,67.0,67.1,0.0,0.0
*PART
part 88
88,1,0,0,0,0,0,88
$#
*MAT_THERMAL_CWM_TITLE
segment 89
89,8.933e-06,0.0,0.0,0.0,0.0,0.0,0.0
11,12,0,0,68.0,68.1,0.0,0.0
*PART
part 89
89,1,0,0,0,0,0,89
$#
*MAT_THERMAL_CWM_TITLE
segment 90
90,8.933e-06,0.0,0.0,0.0,0.0,0.0,0.0
11,12,0,0,69.0,69.1,0.0,0.0
*PART
part 90
90,1,0,0,0,0,0,90
$#
*MAT_THERMAL_CWM_TITLE
segment 91
91,8.933e-06,0.0,0.0,0.0,0.0,0.0,0.0
11,12,0,0,70.0,70.1,0.0,0.0
*PART
part 91
91,1,0,0,0,0,0,91
$#
*MAT_THERMAL_CWM_TITLE
segment 92
92,8.933e-06,0.0,0.0,0.0,0.0,0.0,0.0
11,12,0,0,71.0,71.1,0.0,0.0
*PART
part 92
92,1,0,0,0,0,0,92
$#
*END