*MAT_THERMAL_CWM_TITLE
segment12
12,8.933e-06,0.0,0.0,0.0,0.0,0.0,0.0
11,12,0,0,0.0,0.1,0.0,0.0
*PART
inactive part12
12,1,0,0,0,0,0,12
$#
*MAT_THERMAL_CWM_TITLE
segment14
14,8.933e-06,0.0,0.0,0.0,0.0,0.0,0.0
11,12,0,0,0.0,0.1,0.0,0.0
*PART
inactive part14
14,1,0,0,0,0,0,14
$#
*MAT_THERMAL_CWM_TITLE
segment16
16,8.933e-06,0.0,0.0,0.0,0.0,0.0,0.0
11,12,0,0,0.0,0.1,0.0,0.0
*PART
inactive part16
16,1,0,0,0,0,0,16
$#
*MAT_THERMAL_CWM_TITLE
segment18
18,8.933e-06,0.0,0.0,0.0,0.0,0.0,0.0
11,12,0,0,0.0,0.1,0.0,0.0
*PART
inactive part18
18,1,0,0,0,0,0,18
$#
*MAT_THERMAL_CWM_TITLE
segment20
20,8.933e-06,0.0,0.0,0.0,0.0,0.0,0.0
11,12,0,0,0.0,0.1,0.0,0.0
*PART
inactive part20
20,1,0,0,0,0,0,20
$#
*MAT_THERMAL_CWM_TITLE
segment22
22,8.933e-06,0.0,0.0,0.0,0.0,0.0,0.0
11,12,0,0,0.0,0.1,0.0,0.0
*PART
inactive part22
22,1,0,0,0,0,0,22
$#
*MAT_THERMAL_CWM_TITLE
segment23
23,8.933e-06,0.0,0.0,0.0,0.0,0.0,0.0
11,12,0,0,0.0,0.1,0.0,0.0
*PART
inactive part23
23,1,0,0,0,0,0,23
$#
*MAT_THERMAL_CWM_TITLE
segment24
24,8.933e-06,0.0,0.0,0.0,0.0,0.0,0.0
11,12,0,0,0.0,0.1,0.0,0.0
*PART
inactive part24
24,1,0,0,0,0,0,24
$#
*MAT_THERMAL_CWM_TITLE
segment25
25,8.933e-06,0.0,0.0,0.0,0.0,0.0,0.0
11,12,0,0,0.0,0.1,0.0,0.0
*PART
inactive part25
25,1,0,0,0,0,0,25
$#
*MAT_THERMAL_CWM_TITLE
segment26
26,8.933e-06,0.0,0.0,0.0,0.0,0.0,0.0
11,12,0,0,0.0,0.1,0.0,0.0
*PART
inactive part26
26,1,0,0,0,0,0,26
$#
*MAT_THERMAL_CWM_TITLE
segment27
27,8.933e-06,0.0,0.0,0.0,0.0,0.0,0.0
11,12,0,0,0.0,0.1,0.0,0.0
*PART
inactive part27
27,1,0,0,0,0,0,27
$#
*MAT_THERMAL_CWM_TITLE
segment28
28,8.933e-06,0.0,0.0,0.0,0.0,0.0,0.0
11,12,0,0,0.0,0.1,0.0,0.0
*PART
inactive part28
28,1,0,0,0,0,0,28
$#
*MAT_THERMAL_CWM_TITLE
segment29
29,8.933e-06,0.0,0.0,0.0,0.0,0.0,0.0
11,12,0,0,0.0,0.1,0.0,0.0
*PART
inactive part29
29,1,0,0,0,0,0,29
$#
*MAT_THERMAL_CWM_TITLE
segment37
37,8.933e-06,0.0,0.0,0.0,0.0,0.0,0.0
11,12,0,0,0.0,0.1,0.0,0.0
*PART
inactive part37
37,1,0,0,0,0,0,37
$#
*MAT_THERMAL_CWM_TITLE
segment38
38,8.933e-06,0.0,0.0,0.0,0.0,0.0,0.0
11,12,0,0,0.0,0.1,0.0,0.0
*PART
inactive part38
38,1,0,0,0,0,0,38
$#
*MAT_THERMAL_CWM_TITLE
segment39
39,8.933e-06,0.0,0.0,0.0,0.0,0.0,0.0
11,12,0,0,0.0,0.1,0.0,0.0
*PART
inactive part39
39,1,0,0,0,0,0,39
$#
*MAT_THERMAL_CWM_TITLE
segment40
40,8.933e-06,0.0,0.0,0.0,0.0,0.0,0.0
11,12,0,0,0.0,0.1,0.0,0.0
*PART
inactive part40
40,1,0,0,0,0,0,40
$#
*MAT_THERMAL_CWM_TITLE
segment41
41,8.933e-06,0.0,0.0,0.0,0.0,0.0,0.0
11,12,0,0,0.0,0.1,0.0,0.0
*PART
inactive part41
41,1,0,0,0,0,0,41
$#
*MAT_THERMAL_CWM_TITLE
segment42
42,8.933e-06,0.0,0.0,0.0,0.0,0.0,0.0
11,12,0,0,0.0,0.1,0.0,0.0
*PART
inactive part42
42,1,0,0,0,0,0,42
$#
*MAT_THERMAL_CWM_TITLE
segment43
43,8.933e-06,0.0,0.0,0.0,0.0,0.0,0.0
11,12,0,0,0.0,0.1,0.0,0.0
*PART
inactive part43
43,1,0,0,0,0,0,43
$#
*MAT_THERMAL_CWM_TITLE
segment51
51,8.933e-06,0.0,0.0,0.0,0.0,0.0,0.0
11,12,0,0,0.0,0.1,0.0,0.0
*PART
inactive part51
51,1,0,0,0,0,0,51
$#
*MAT_THERMAL_CWM_TITLE
segment52
52,8.933e-06,0.0,0.0,0.0,0.0,0.0,0.0
11,12,0,0,0.0,0.1,0.0,0.0
*PART
inactive part52
52,1,0,0,0,0,0,52
$#
*MAT_THERMAL_CWM_TITLE
segment53
53,8.933e-06,0.0,0.0,0.0,0.0,0.0,0.0
11,12,0,0,0.0,0.1,0.0,0.0
*PART
inactive part53
53,1,0,0,0,0,0,53
$#
*MAT_THERMAL_CWM_TITLE
segment54
54,8.933e-06,0.0,0.0,0.0,0.0,0.0,0.0
11,12,0,0,0.0,0.1,0.0,0.0
*PART
inactive part54
54,1,0,0,0,0,0,54
$#
*MAT_THERMAL_CWM_TITLE
segment55
55,8.933e-06,0.0,0.0,0.0,0.0,0.0,0.0
11,12,0,0,0.0,0.1,0.0,0.0
*PART
inactive part55
55,1,0,0,0,0,0,55
$#
*MAT_THERMAL_CWM_TITLE
segment56
56,8.933e-06,0.0,0.0,0.0,0.0,0.0,0.0
11,12,0,0,0.0,0.1,0.0,0.0
*PART
inactive part56
56,1,0,0,0,0,0,56
$#
*MAT_THERMAL_CWM_TITLE
segment57
57,8.933e-06,0.0,0.0,0.0,0.0,0.0,0.0
11,12,0,0,0.0,0.1,0.0,0.0
*PART
inactive part57
57,1,0,0,0,0,0,57
$#
*MAT_THERMAL_CWM_TITLE
segment65
65,8.933e-06,0.0,0.0,0.0,0.0,0.0,0.0
11,12,0,0,0.0,0.1,0.0,0.0
*PART
inactive part65
65,1,0,0,0,0,0,65
$#
*MAT_THERMAL_CWM_TITLE
segment66
66,8.933e-06,0.0,0.0,0.0,0.0,0.0,0.0
11,12,0,0,0.0,0.1,0.0,0.0
*PART
inactive part66
66,1,0,0,0,0,0,66
$#
*MAT_THERMAL_CWM_TITLE
segment67
67,8.933e-06,0.0,0.0,0.0,0.0,0.0,0.0
11,12,0,0,0.0,0.1,0.0,0.0
*PART
inactive part67
67,1,0,0,0,0,0,67
$#
*MAT_THERMAL_CWM_TITLE
segment68
68,8.933e-06,0.0,0.0,0.0,0.0,0.0,0.0
11,12,0,0,0.0,0.1,0.0,0.0
*PART
inactive part68
68,1,0,0,0,0,0,68
$#
*MAT_THERMAL_CWM_TITLE
segment69
69,8.933e-06,0.0,0.0,0.0,0.0,0.0,0.0
11,12,0,0,0.0,0.1,0.0,0.0
*PART
inactive part69
69,1,0,0,0,0,0,69
$#
*MAT_THERMAL_CWM_TITLE
segment70
70,8.933e-06,0.0,0.0,0.0,0.0,0.0,0.0
11,12,0,0,0.0,0.1,0.0,0.0
*PART
inactive part70
70,1,0,0,0,0,0,70
$#
*MAT_THERMAL_CWM_TITLE
segment71
71,8.933e-06,0.0,0.0,0.0,0.0,0.0,0.0
11,12,0,0,0.0,0.1,0.0,0.0
*PART
inactive part71
71,1,0,0,0,0,0,71
$#
*MAT_THERMAL_CWM_TITLE
segment79
79,8.933e-06,0.0,0.0,0.0,0.0,0.0,0.0
11,12,0,0,0.0,0.1,0.0,0.0
*PART
inactive part79
79,1,0,0,0,0,0,79
$#
*MAT_THERMAL_CWM_TITLE
segment80
80,8.933e-06,0.0,0.0,0.0,0.0,0.0,0.0
11,12,0,0,0.0,0.1,0.0,0.0
*PART
inactive part80
80,1,0,0,0,0,0,80
$#
*MAT_THERMAL_CWM_TITLE
segment81
81,8.933e-06,0.0,0.0,0.0,0.0,0.0,0.0
11,12,0,0,0.0,0.1,0.0,0.0
*PART
inactive part81
81,1,0,0,0,0,0,81
$#
*MAT_THERMAL_CWM_TITLE
segment82
82,8.933e-06,0.0,0.0,0.0,0.0,0.0,0.0
11,12,0,0,0.0,0.1,0.0,0.0
*PART
inactive part82
82,1,0,0,0,0,0,82
$#
*MAT_THERMAL_CWM_TITLE
segment83
83,8.933e-06,0.0,0.0,0.0,0.0,0.0,0.0
11,12,0,0,0.0,0.1,0.0,0.0
*PART
inactive part83
83,1,0,0,0,0,0,83
$#
*MAT_THERMAL_CWM_TITLE
segment84
84,8.933e-06,0.0,0.0,0.0,0.0,0.0,0.0
11,12,0,0,0.0,0.1,0.0,0.0
*PART
inactive part84
84,1,0,0,0,0,0,84
$#
*MAT_THERMAL_CWM_TITLE
segment85
85,8.933e-06,0.0,0.0,0.0,0.0,0.0,0.0
11,12,0,0,0.0,0.1,0.0,0.0
*PART
inactive part85
85,1,0,0,0,0,0,85
$#
