$# LS-DYNA Keyword file created by LS-PrePost(R) V4.9 (Beta) - 07Mar2022
$# Created on Apr-17-2022 (12:41:42)
*KEYWORD   
*TITLE
$#                                                                         title
LS-DYNA keyword deck by LS-PrePost
*PART
$#                                                                         title
inactive part12
$#     pid     secid       mid     eosid      hgid      grav    adpopt      tmid
        12         1         0         0         0         0         0        12
*PART
$#                                                                         title
inactive part14
$#     pid     secid       mid     eosid      hgid      grav    adpopt      tmid
        14         1         0         0         0         0         0        14
*PART
$#                                                                         title
inactive part16
$#     pid     secid       mid     eosid      hgid      grav    adpopt      tmid
        16         1         0         0         0         0         0        16
*PART
$#                                                                         title
inactive part18
$#     pid     secid       mid     eosid      hgid      grav    adpopt      tmid
        18         1         0         0         0         0         0        18
*PART
$#                                                                         title
inactive part20
$#     pid     secid       mid     eosid      hgid      grav    adpopt      tmid
        20         1         0         0         0         0         0        20
*PART
$#                                                                         title
inactive part22
$#     pid     secid       mid     eosid      hgid      grav    adpopt      tmid
        22         1         0         0         0         0         0        22
*PART
$#                                                                         title
inactive part23
$#     pid     secid       mid     eosid      hgid      grav    adpopt      tmid
        23         1         0         0         0         0         0        23
*PART
$#                                                                         title
inactive part24
$#     pid     secid       mid     eosid      hgid      grav    adpopt      tmid
        24         1         0         0         0         0         0        24
*PART
$#                                                                         title
inactive part25
$#     pid     secid       mid     eosid      hgid      grav    adpopt      tmid
        25         1         0         0         0         0         0        25
*PART
$#                                                                         title
inactive part26
$#     pid     secid       mid     eosid      hgid      grav    adpopt      tmid
        26         1         0         0         0         0         0        26
*PART
$#                                                                         title
inactive part27
$#     pid     secid       mid     eosid      hgid      grav    adpopt      tmid
        27         1         0         0         0         0         0        27
*PART
$#                                                                         title
inactive part28
$#     pid     secid       mid     eosid      hgid      grav    adpopt      tmid
        28         1         0         0         0         0         0        28
*PART
$#                                                                         title
inactive part29
$#     pid     secid       mid     eosid      hgid      grav    adpopt      tmid
        29         1         0         0         0         0         0        29
*PART
$#                                                                         title
inactive part37
$#     pid     secid       mid     eosid      hgid      grav    adpopt      tmid
        37         1         0         0         0         0         0        37
*PART
$#                                                                         title
inactive part38
$#     pid     secid       mid     eosid      hgid      grav    adpopt      tmid
        38         1         0         0         0         0         0        38
*PART
$#                                                                         title
inactive part39
$#     pid     secid       mid     eosid      hgid      grav    adpopt      tmid
        39         1         0         0         0         0         0        39
*PART
$#                                                                         title
inactive part40
$#     pid     secid       mid     eosid      hgid      grav    adpopt      tmid
        40         1         0         0         0         0         0        40
*PART
$#                                                                         title
inactive part41
$#     pid     secid       mid     eosid      hgid      grav    adpopt      tmid
        41         1         0         0         0         0         0        41
*PART
$#                                                                         title
inactive part42
$#     pid     secid       mid     eosid      hgid      grav    adpopt      tmid
        42         1         0         0         0         0         0        42
*PART
$#                                                                         title
inactive part43
$#     pid     secid       mid     eosid      hgid      grav    adpopt      tmid
        43         1         0         0         0         0         0        43
*PART
$#                                                                         title
inactive part51
$#     pid     secid       mid     eosid      hgid      grav    adpopt      tmid
        51         1         0         0         0         0         0        51
*PART
$#                                                                         title
inactive part52
$#     pid     secid       mid     eosid      hgid      grav    adpopt      tmid
        52         1         0         0         0         0         0        52
*PART
$#                                                                         title
inactive part53
$#     pid     secid       mid     eosid      hgid      grav    adpopt      tmid
        53         1         0         0         0         0         0        53
*PART
$#                                                                         title
inactive part54
$#     pid     secid       mid     eosid      hgid      grav    adpopt      tmid
        54         1         0         0         0         0         0        54
*PART
$#                                                                         title
inactive part55
$#     pid     secid       mid     eosid      hgid      grav    adpopt      tmid
        55         1         0         0         0         0         0        55
*PART
$#                                                                         title
inactive part56
$#     pid     secid       mid     eosid      hgid      grav    adpopt      tmid
        56         1         0         0         0         0         0        56
*PART
$#                                                                         title
inactive part57
$#     pid     secid       mid     eosid      hgid      grav    adpopt      tmid
        57         1         0         0         0         0         0        57
*PART
$#                                                                         title
inactive part65
$#     pid     secid       mid     eosid      hgid      grav    adpopt      tmid
        65         1         0         0         0         0         0        65
*PART
$#                                                                         title
inactive part66
$#     pid     secid       mid     eosid      hgid      grav    adpopt      tmid
        66         1         0         0         0         0         0        66
*PART
$#                                                                         title
inactive part67
$#     pid     secid       mid     eosid      hgid      grav    adpopt      tmid
        67         1         0         0         0         0         0        67
*PART
$#                                                                         title
inactive part68
$#     pid     secid       mid     eosid      hgid      grav    adpopt      tmid
        68         1         0         0         0         0         0        68
*PART
$#                                                                         title
inactive part69
$#     pid     secid       mid     eosid      hgid      grav    adpopt      tmid
        69         1         0         0         0         0         0        69
*PART
$#                                                                         title
inactive part70
$#     pid     secid       mid     eosid      hgid      grav    adpopt      tmid
        70         1         0         0         0         0         0        70
*PART
$#                                                                         title
inactive part71
$#     pid     secid       mid     eosid      hgid      grav    adpopt      tmid
        71         1         0         0         0         0         0        71
*PART
$#                                                                         title
inactive part79
$#     pid     secid       mid     eosid      hgid      grav    adpopt      tmid
        79         1         0         0         0         0         0        79
*PART
$#                                                                         title
inactive part80
$#     pid     secid       mid     eosid      hgid      grav    adpopt      tmid
        80         1         0         0         0         0         0        80
*PART
$#                                                                         title
inactive part81
$#     pid     secid       mid     eosid      hgid      grav    adpopt      tmid
        81         1         0         0         0         0         0        81
*PART
$#                                                                         title
inactive part82
$#     pid     secid       mid     eosid      hgid      grav    adpopt      tmid
        82         1         0         0         0         0         0        82
*PART
$#                                                                         title
inactive part83
$#     pid     secid       mid     eosid      hgid      grav    adpopt      tmid
        83         1         0         0         0         0         0        83
*PART
$#                                                                         title
inactive part84
$#     pid     secid       mid     eosid      hgid      grav    adpopt      tmid
        84         1         0         0         0         0         0        84
*PART
$#                                                                         title
inactive part85
$#     pid     secid       mid     eosid      hgid      grav    adpopt      tmid
        85         1         0         0         0         0         0        85
*MAT_THERMAL_CWM_TITLE
segment12
$#    tmid       tro     tgrlc    tgmult     hdead     tdead      tlat      hlat
        128.93300E-6       0.0       0.0       0.0       0.0       0.0       0.0
$#    lchc      lctc   tlstart     tlend   tistart     tiend    hghost    tghost
        11        12       0.0       0.0       0.0       0.1       0.0       0.0
*MAT_THERMAL_CWM_TITLE
segment14
$#    tmid       tro     tgrlc    tgmult     hdead     tdead      tlat      hlat
        148.93300E-6       0.0       0.0       0.0       0.0       0.0       0.0
$#    lchc      lctc   tlstart     tlend   tistart     tiend    hghost    tghost
        11        12       0.0       0.0       0.0       0.1       0.0       0.0
*MAT_THERMAL_CWM_TITLE
segment16
$#    tmid       tro     tgrlc    tgmult     hdead     tdead      tlat      hlat
        168.93300E-6       0.0       0.0       0.0       0.0       0.0       0.0
$#    lchc      lctc   tlstart     tlend   tistart     tiend    hghost    tghost
        11        12       0.0       0.0       0.0       0.1       0.0       0.0
*MAT_THERMAL_CWM_TITLE
segment18
$#    tmid       tro     tgrlc    tgmult     hdead     tdead      tlat      hlat
        188.93300E-6       0.0       0.0       0.0       0.0       0.0       0.0
$#    lchc      lctc   tlstart     tlend   tistart     tiend    hghost    tghost
        11        12       0.0       0.0       0.0       0.1       0.0       0.0
*MAT_THERMAL_CWM_TITLE
segment20
$#    tmid       tro     tgrlc    tgmult     hdead     tdead      tlat      hlat
        208.93300E-6       0.0       0.0       0.0       0.0       0.0       0.0
$#    lchc      lctc   tlstart     tlend   tistart     tiend    hghost    tghost
        11        12       0.0       0.0       0.0       0.1       0.0       0.0
*MAT_THERMAL_CWM_TITLE
segment22
$#    tmid       tro     tgrlc    tgmult     hdead     tdead      tlat      hlat
        228.93300E-6       0.0       0.0       0.0       0.0       0.0       0.0
$#    lchc      lctc   tlstart     tlend   tistart     tiend    hghost    tghost
        11        12       0.0       0.0       0.0       0.1       0.0       0.0
*MAT_THERMAL_CWM_TITLE
segment23
$#    tmid       tro     tgrlc    tgmult     hdead     tdead      tlat      hlat
        238.93300E-6       0.0       0.0       0.0       0.0       0.0       0.0
$#    lchc      lctc   tlstart     tlend   tistart     tiend    hghost    tghost
        11        12       0.0       0.0       0.0       0.1       0.0       0.0
*MAT_THERMAL_CWM_TITLE
segment24
$#    tmid       tro     tgrlc    tgmult     hdead     tdead      tlat      hlat
        248.93300E-6       0.0       0.0       0.0       0.0       0.0       0.0
$#    lchc      lctc   tlstart     tlend   tistart     tiend    hghost    tghost
        11        12       0.0       0.0       0.0       0.1       0.0       0.0
*MAT_THERMAL_CWM_TITLE
segment25
$#    tmid       tro     tgrlc    tgmult     hdead     tdead      tlat      hlat
        258.93300E-6       0.0       0.0       0.0       0.0       0.0       0.0
$#    lchc      lctc   tlstart     tlend   tistart     tiend    hghost    tghost
        11        12       0.0       0.0       0.0       0.1       0.0       0.0
*MAT_THERMAL_CWM_TITLE
segment26
$#    tmid       tro     tgrlc    tgmult     hdead     tdead      tlat      hlat
        268.93300E-6       0.0       0.0       0.0       0.0       0.0       0.0
$#    lchc      lctc   tlstart     tlend   tistart     tiend    hghost    tghost
        11        12       0.0       0.0       0.0       0.1       0.0       0.0
*MAT_THERMAL_CWM_TITLE
segment27
$#    tmid       tro     tgrlc    tgmult     hdead     tdead      tlat      hlat
        278.93300E-6       0.0       0.0       0.0       0.0       0.0       0.0
$#    lchc      lctc   tlstart     tlend   tistart     tiend    hghost    tghost
        11        12       0.0       0.0       0.0       0.1       0.0       0.0
*MAT_THERMAL_CWM_TITLE
segment28
$#    tmid       tro     tgrlc    tgmult     hdead     tdead      tlat      hlat
        288.93300E-6       0.0       0.0       0.0       0.0       0.0       0.0
$#    lchc      lctc   tlstart     tlend   tistart     tiend    hghost    tghost
        11        12       0.0       0.0       0.0       0.1       0.0       0.0
*MAT_THERMAL_CWM_TITLE
segment29
$#    tmid       tro     tgrlc    tgmult     hdead     tdead      tlat      hlat
        298.93300E-6       0.0       0.0       0.0       0.0       0.0       0.0
$#    lchc      lctc   tlstart     tlend   tistart     tiend    hghost    tghost
        11        12       0.0       0.0       0.0       0.1       0.0       0.0
*MAT_THERMAL_CWM_TITLE
segment37
$#    tmid       tro     tgrlc    tgmult     hdead     tdead      tlat      hlat
        378.93300E-6       0.0       0.0       0.0       0.0       0.0       0.0
$#    lchc      lctc   tlstart     tlend   tistart     tiend    hghost    tghost
        11        12       0.0       0.0       0.0       0.1       0.0       0.0
*MAT_THERMAL_CWM_TITLE
segment38
$#    tmid       tro     tgrlc    tgmult     hdead     tdead      tlat      hlat
        388.93300E-6       0.0       0.0       0.0       0.0       0.0       0.0
$#    lchc      lctc   tlstart     tlend   tistart     tiend    hghost    tghost
        11        12       0.0       0.0       0.0       0.1       0.0       0.0
*MAT_THERMAL_CWM_TITLE
segment39
$#    tmid       tro     tgrlc    tgmult     hdead     tdead      tlat      hlat
        398.93300E-6       0.0       0.0       0.0       0.0       0.0       0.0
$#    lchc      lctc   tlstart     tlend   tistart     tiend    hghost    tghost
        11        12       0.0       0.0       0.0       0.1       0.0       0.0
*MAT_THERMAL_CWM_TITLE
segment40
$#    tmid       tro     tgrlc    tgmult     hdead     tdead      tlat      hlat
        408.93300E-6       0.0       0.0       0.0       0.0       0.0       0.0
$#    lchc      lctc   tlstart     tlend   tistart     tiend    hghost    tghost
        11        12       0.0       0.0       0.0       0.1       0.0       0.0
*MAT_THERMAL_CWM_TITLE
segment41
$#    tmid       tro     tgrlc    tgmult     hdead     tdead      tlat      hlat
        418.93300E-6       0.0       0.0       0.0       0.0       0.0       0.0
$#    lchc      lctc   tlstart     tlend   tistart     tiend    hghost    tghost
        11        12       0.0       0.0       0.0       0.1       0.0       0.0
*MAT_THERMAL_CWM_TITLE
segment42
$#    tmid       tro     tgrlc    tgmult     hdead     tdead      tlat      hlat
        428.93300E-6       0.0       0.0       0.0       0.0       0.0       0.0
$#    lchc      lctc   tlstart     tlend   tistart     tiend    hghost    tghost
        11        12       0.0       0.0       0.0       0.1       0.0       0.0
*MAT_THERMAL_CWM_TITLE
segment43
$#    tmid       tro     tgrlc    tgmult     hdead     tdead      tlat      hlat
        438.93300E-6       0.0       0.0       0.0       0.0       0.0       0.0
$#    lchc      lctc   tlstart     tlend   tistart     tiend    hghost    tghost
        11        12       0.0       0.0       0.0       0.1       0.0       0.0
*MAT_THERMAL_CWM_TITLE
segment51
$#    tmid       tro     tgrlc    tgmult     hdead     tdead      tlat      hlat
        518.93300E-6       0.0       0.0       0.0       0.0       0.0       0.0
$#    lchc      lctc   tlstart     tlend   tistart     tiend    hghost    tghost
        11        12       0.0       0.0       0.0       0.1       0.0       0.0
*MAT_THERMAL_CWM_TITLE
segment52
$#    tmid       tro     tgrlc    tgmult     hdead     tdead      tlat      hlat
        528.93300E-6       0.0       0.0       0.0       0.0       0.0       0.0
$#    lchc      lctc   tlstart     tlend   tistart     tiend    hghost    tghost
        11        12       0.0       0.0       0.0       0.1       0.0       0.0
*MAT_THERMAL_CWM_TITLE
segment53
$#    tmid       tro     tgrlc    tgmult     hdead     tdead      tlat      hlat
        538.93300E-6       0.0       0.0       0.0       0.0       0.0       0.0
$#    lchc      lctc   tlstart     tlend   tistart     tiend    hghost    tghost
        11        12       0.0       0.0       0.0       0.1       0.0       0.0
*MAT_THERMAL_CWM_TITLE
segment54
$#    tmid       tro     tgrlc    tgmult     hdead     tdead      tlat      hlat
        548.93300E-6       0.0       0.0       0.0       0.0       0.0       0.0
$#    lchc      lctc   tlstart     tlend   tistart     tiend    hghost    tghost
        11        12       0.0       0.0       0.0       0.1       0.0       0.0
*MAT_THERMAL_CWM_TITLE
segment55
$#    tmid       tro     tgrlc    tgmult     hdead     tdead      tlat      hlat
        558.93300E-6       0.0       0.0       0.0       0.0       0.0       0.0
$#    lchc      lctc   tlstart     tlend   tistart     tiend    hghost    tghost
        11        12       0.0       0.0       0.0       0.1       0.0       0.0
*MAT_THERMAL_CWM_TITLE
segment56
$#    tmid       tro     tgrlc    tgmult     hdead     tdead      tlat      hlat
        568.93300E-6       0.0       0.0       0.0       0.0       0.0       0.0
$#    lchc      lctc   tlstart     tlend   tistart     tiend    hghost    tghost
        11        12       0.0       0.0       0.0       0.1       0.0       0.0
*MAT_THERMAL_CWM_TITLE
segment57
$#    tmid       tro     tgrlc    tgmult     hdead     tdead      tlat      hlat
        578.93300E-6       0.0       0.0       0.0       0.0       0.0       0.0
$#    lchc      lctc   tlstart     tlend   tistart     tiend    hghost    tghost
        11        12       0.0       0.0       0.0       0.1       0.0       0.0
*MAT_THERMAL_CWM_TITLE
segment65
$#    tmid       tro     tgrlc    tgmult     hdead     tdead      tlat      hlat
        658.93300E-6       0.0       0.0       0.0       0.0       0.0       0.0
$#    lchc      lctc   tlstart     tlend   tistart     tiend    hghost    tghost
        11        12       0.0       0.0       0.0       0.1       0.0       0.0
*MAT_THERMAL_CWM_TITLE
segment66
$#    tmid       tro     tgrlc    tgmult     hdead     tdead      tlat      hlat
        668.93300E-6       0.0       0.0       0.0       0.0       0.0       0.0
$#    lchc      lctc   tlstart     tlend   tistart     tiend    hghost    tghost
        11        12       0.0       0.0       0.0       0.1       0.0       0.0
*MAT_THERMAL_CWM_TITLE
segment67
$#    tmid       tro     tgrlc    tgmult     hdead     tdead      tlat      hlat
        678.93300E-6       0.0       0.0       0.0       0.0       0.0       0.0
$#    lchc      lctc   tlstart     tlend   tistart     tiend    hghost    tghost
        11        12       0.0       0.0       0.0       0.1       0.0       0.0
*MAT_THERMAL_CWM_TITLE
segment68
$#    tmid       tro     tgrlc    tgmult     hdead     tdead      tlat      hlat
        688.93300E-6       0.0       0.0       0.0       0.0       0.0       0.0
$#    lchc      lctc   tlstart     tlend   tistart     tiend    hghost    tghost
        11        12       0.0       0.0       0.0       0.1       0.0       0.0
*MAT_THERMAL_CWM_TITLE
segment69
$#    tmid       tro     tgrlc    tgmult     hdead     tdead      tlat      hlat
        698.93300E-6       0.0       0.0       0.0       0.0       0.0       0.0
$#    lchc      lctc   tlstart     tlend   tistart     tiend    hghost    tghost
        11        12       0.0       0.0       0.0       0.1       0.0       0.0
*MAT_THERMAL_CWM_TITLE
segment70
$#    tmid       tro     tgrlc    tgmult     hdead     tdead      tlat      hlat
        708.93300E-6       0.0       0.0       0.0       0.0       0.0       0.0
$#    lchc      lctc   tlstart     tlend   tistart     tiend    hghost    tghost
        11        12       0.0       0.0       0.0       0.1       0.0       0.0
*MAT_THERMAL_CWM_TITLE
segment71
$#    tmid       tro     tgrlc    tgmult     hdead     tdead      tlat      hlat
        718.93300E-6       0.0       0.0       0.0       0.0       0.0       0.0
$#    lchc      lctc   tlstart     tlend   tistart     tiend    hghost    tghost
        11        12       0.0       0.0       0.0       0.1       0.0       0.0
*MAT_THERMAL_CWM_TITLE
segment79
$#    tmid       tro     tgrlc    tgmult     hdead     tdead      tlat      hlat
        798.93300E-6       0.0       0.0       0.0       0.0       0.0       0.0
$#    lchc      lctc   tlstart     tlend   tistart     tiend    hghost    tghost
        11        12       0.0       0.0       0.0       0.1       0.0       0.0
*MAT_THERMAL_CWM_TITLE
segment80
$#    tmid       tro     tgrlc    tgmult     hdead     tdead      tlat      hlat
        808.93300E-6       0.0       0.0       0.0       0.0       0.0       0.0
$#    lchc      lctc   tlstart     tlend   tistart     tiend    hghost    tghost
        11        12       0.0       0.0       0.0       0.1       0.0       0.0
*MAT_THERMAL_CWM_TITLE
segment81
$#    tmid       tro     tgrlc    tgmult     hdead     tdead      tlat      hlat
        818.93300E-6       0.0       0.0       0.0       0.0       0.0       0.0
$#    lchc      lctc   tlstart     tlend   tistart     tiend    hghost    tghost
        11        12       0.0       0.0       0.0       0.1       0.0       0.0
*MAT_THERMAL_CWM_TITLE
segment82
$#    tmid       tro     tgrlc    tgmult     hdead     tdead      tlat      hlat
        828.93300E-6       0.0       0.0       0.0       0.0       0.0       0.0
$#    lchc      lctc   tlstart     tlend   tistart     tiend    hghost    tghost
        11        12       0.0       0.0       0.0       0.1       0.0       0.0
*MAT_THERMAL_CWM_TITLE
segment83
$#    tmid       tro     tgrlc    tgmult     hdead     tdead      tlat      hlat
        838.93300E-6       0.0       0.0       0.0       0.0       0.0       0.0
$#    lchc      lctc   tlstart     tlend   tistart     tiend    hghost    tghost
        11        12       0.0       0.0       0.0       0.1       0.0       0.0
*MAT_THERMAL_CWM_TITLE
segment84
$#    tmid       tro     tgrlc    tgmult     hdead     tdead      tlat      hlat
        848.93300E-6       0.0       0.0       0.0       0.0       0.0       0.0
$#    lchc      lctc   tlstart     tlend   tistart     tiend    hghost    tghost
        11        12       0.0       0.0       0.0       0.1       0.0       0.0
*MAT_THERMAL_CWM_TITLE
segment85
$#    tmid       tro     tgrlc    tgmult     hdead     tdead      tlat      hlat
        858.93300E-6       0.0       0.0       0.0       0.0       0.0       0.0
$#    lchc      lctc   tlstart     tlend   tistart     tiend    hghost    tghost
        11        12       0.0       0.0       0.0       0.1       0.0       0.0
*END
