*KEYWORD
*MAT_ELASTIC_PLASTIC_THERMAL
         1   8933e-9
    293.15     2000.
 128859757   7325219
       .34       .34
 2.367e-05 2.367e-05


*MAT_THERMAL_ISOTROPIC
         1         1         0         0
 3424.4764    400680
*END